Questionable use of curly braces in "src_dir={src}"
    Error: undefined symbol in: "[src]"
Questionable use of curly braces in "inc_dir={inc}"
    Error: undefined symbol in: "[inc]"
Questionable use of curly braces in "lib_dir={lib}"
    Error: undefined symbol in: "[lib]"
Questionable use of curly braces in "target={stm32f0xx}"
    Error: undefined symbol in: "[stm32f0xx]"
Questionable use of curly braces in "startup := {startup_stm32f042x6.s}"
    Error: undefined symbol in: "[startup_stm32f042x6.s]"
Questionable use of curly braces in "proj_name={cannode}"
    Error: undefined symbol in: "[cannode]"
Questionable use of curly braces in "odir={obj}"
    Error: undefined symbol in: "[obj]"
Questionable use of curly braces in "flags += --specs={nosys.specs} -mthumb -mcpu=cortex-m0"
    Error: undefined symbol in: "[nosys.specs]"
Questionable use of curly braces in "cflags = --std={gnu11} $(flags)"
    Error: undefined symbol in: "[gnu11]"
Circuit: * Put your STM32F4 library code directory here

Fatal Error: Multiple instances of "Flags"
